Circuit: * G:\Meine Ablage\ZHAW\Projekt Modul 3\PM3-Cable_Monitor\PCB Design\LT-Spice Simulation\Electrostatic_Field\Draft3.asc

.OP point found by inspection.

Date: Tue Oct 10 20:58:09 2023
Total elapsed time: 0.236 seconds.

tnom = 27
temp = 27
method = modified trap
totiter = 40293
traniter = 40293
tranpoints = 20133
accept = 20104
rejected = 29
matrix size = 4
fillins = 0
solver = Normal
Matrix Compiler1: 100 bytes object code size  0.0/0.0/[0.0]
Matrix Compiler2: 248 bytes object code size  0.0/0.0/[0.0]

