Circuit: * G:\Meine Ablage\ZHAW\Projekt Modul 3\PM3-Cable_Monitor\PCB Design\LT-Spice Simulation\Electrostatic_Field\MF_bandpass.asc

Ignoring empty pin current: Ix(opa:1)
Ignoring empty pin current: Ix(opa:2)
Ignoring empty pin current: Ix(opa1:1)
Ignoring empty pin current: Ix(opa1:2)

Date: Sun Oct 01 21:29:29 2023
Total elapsed time: 0.176 seconds.

tnom = 27
temp = 27
method = trap
totiter = 0
traniter = 0
tranpoints = 0
accept = 0
rejected = 0
matrix size = 11
fillins = 9
solver = Normal

