Circuit: * G:\Meine Ablage\ZHAW\Projekt Modul 3\PM3-Cable_Monitor\PCB Design\LT-Spice Simulation\Electrostatic_Field\MF_bandpass.asc

Ignoring empty pin current: Ix(u1:1)
Ignoring empty pin current: Ix(u1:2)
Ignoring empty pin current: Ix(u2:1)
Ignoring empty pin current: Ix(u2:2)

Date: Fri Sep 29 14:11:19 2023
Total elapsed time: 0.287 seconds.

tnom = 27
temp = 27
method = trap
totiter = 0
traniter = 0
tranpoints = 0
accept = 0
rejected = 0
matrix size = 9
fillins = 5
solver = Normal

