Circuit: * G:\Meine Ablage\ZHAW\Projekt Modul 3\PM3-Cable_Monitor\Kursmaterial\Sensor_Signals\MF_bandpass.asc

Ignoring empty pin current: Ix(opa:1)
Ignoring empty pin current: Ix(opa:2)

Date: Sun Oct 01 21:31:48 2023
Total elapsed time: 0.171 seconds.

tnom = 27
temp = 27
method = trap
totiter = 0
traniter = 0
tranpoints = 0
accept = 0
rejected = 0
matrix size = 8
fillins = 5
solver = Normal

