Circuit: * G:\Meine Ablage\ZHAW\Projekt Modul 3\PM3-Cable_Monitor\PCB Design\LT-Spice Simulation\E-PAD.asc

Fatal Error: Unknown subcircuit called in:
   xu2 n002 n008 n004 opamp aol=100k gbw=10meg
